
*NODE
1,	0,	0
2,	2,	0
3,	4,	0
4,	4,	1
5,	2,	1
6,	0,	1
7,	0,	2
8,	2,	2
9,	4,	2


*ELEMENT, TYPE=CPS4P, ELSET =Eall
1,1,2,5,6
2,2,3,4,5
3,6,5,8,7
4,5,4,9,8



*ELSET, ELSET=left
1,3

*ELSET, ELSET=right
2,4

*ELSET, ELSET=up
3,4

*ELSET, ELSET=down
1,2

*MATERIAL, NAME=STEEL
*ELASTIC
 200000, 0.3

*STEP

*DLOAD
right, p2,20
left,p4,20
up,p3,15
down,p1,15









